15

C -1.04363 0.926847 -0
C 0.280865 1.36723 -0
C 1.32449 0.440377 -0
H 0.499105 2.42961 0
C 1.04363 -0.926843 -0
H 2.35366 0.782567 -0
C -1.32449 -0.440383 -0
H -1.85455 1.64704 0
C -0.280865 -1.36722 -0
H 1.85455 -1.64704 -0
H -2.35365 -0.782573 -0
H -0.499105 -2.42961 -0
O 1.32363 3.91111 -2.30825
H 1.57111 4.65209 -2.91679
H 0.865969 3.254 -2.89078
